model BasicBuilder -ndm 3 -ndf 3

node 1 2.28338479996 0.0 2.95834827423 -mass 0 0 0
node 2 3.04451394081 0.0 2.95834827423 -mass 0 0 0
node 3 3.04451441765 0.0 2.21876120567 -mass 0 0 0
node 4 2.28338479996 0.0 2.21876120567 -mass 0 0 0
node 5 2.39509654045 2.71250009537 2.95834827423 -mass 0 0 0
node 6 3.15316128731 2.64427065849 2.95834827423 -mass 0 0 0
node 7 3.15316200256 2.64427065849 2.21876120567 -mass 0 0 0
node 8 2.39509654045 2.71250009537 2.21876120567 -mass 0 0 0
node 9 1.52225661278 0.0 2.21876120567 -mass 0 0 0
node 10 1.52225708961 0.0 2.95834827423 -mass 0 0 0
node 11 1.63703262806 2.78072929382 2.21876120567 -mass 0 0 0
node 12 1.63703310490 2.78072905540 2.95834827423 -mass 0 0 0
node 13 0.761128127575 0.0 2.21876120567 -mass 0 0 0
node 14 0.761129558086 0.0 2.95834827423 -mass 0 0 0
node 15 0.878968477249 2.84895849228 2.21876120567 -mass 0 0 0
node 16 0.878969848156 2.84895825386 2.95834827423 -mass 0 0 0
node 17 1.80483993972e-07 0.0 2.21876120567 -mass 0 0 0
node 18 6.57321152175e-07 0.0 2.95834827423 -mass 0 0 0
node 19 0.120904773474 2.91718769073 2.21876120567 -mass 0 0 0
node 20 0.120905250311 2.91718745232 2.95834827423 -mass 0 0 0
# ... 988 like lines cut
fix 45 1 1 1
fix 46 1 1 1
fix 50 1 1 1
fix 54 1 1 1
fix 58 1 1 1
fix 62 1 1 1
fix 66 1 1 1
fix 503 1 1 1
fix 504 1 1 1
fix 506 1 1 1
fix 508 1 1 1
fix 510 1 1 1
fix 512 1 1 1
fix 514 1 1 1
fix 983 1 1 1
fix 984 1 1 1
fix 986 1 1 1
fix 988 1 1 1
fix 990 1 1 1
fix 992 1 1 1
fix 994 1 1 1
nDMaterial ElasticIsotropic 1 22.0 0.3 25.0
element SSPbrick 1 1 2 3 4 5 6 7 8 1 0 0 0

nDMaterial ElasticIsotropic 2 22.0 0.3 25.0
element SSPbrick 2 1 4 9 10 5 8 11 12 2 0 0 0

nDMaterial ElasticIsotropic 3 22.0 0.3 25.0
element SSPbrick 3 10 9 13 14 12 11 15 16 3 0 0 0

nDMaterial ElasticIsotropic 4 22.0 0.3 25.0
element SSPbrick 4 14 13 17 18 16 15 19 20 4 0 0 0

nDMaterial ElasticIsotropic 5 22.0 0.3 25.0
element SSPbrick 5 18 17 21 22 20 19 23 24 5 0 0 0

nDMaterial ElasticIsotropic 6 22.0 0.3 25.0
element SSPbrick 6 22 21 25 26 24 23 27 28 6 0 0 0

nDMaterial ElasticIsotropic 7 22.0 0.3 25.0
element SSPbrick 7 26 25 29 30 28 27 31 32 7 0 0 0

nDMaterial ElasticIsotropic 8 22.0 0.3 25.0
element SSPbrick 8 30 29 33 34 32 31 35 36 8 0 0 0

nDMaterial ElasticIsotropic 9 22.0 0.3 25.0
element SSPbrick 9 17 13 37 38 19 15 39 40 9 0 0 0

nDMaterial ElasticIsotropic 10 22.0 0.3 25.0
element SSPbrick 10 38 37 41 42 40 39 43 44 10 0 0 0

nDMaterial ElasticIsotropic 11 22.0 0.3 25.0
element SSPbrick 11 42 41 45 46 44 43 47 48 11 0 0 0

nDMaterial ElasticIsotropic 12 22.0 0.3 25.0
element SSPbrick 12 45 41 49 50 47 43 51 52 12 0 0 0

nDMaterial ElasticIsotropic 13 22.0 0.3 25.0
element SSPbrick 13 50 49 53 54 52 51 55 56 13 0 0 0

nDMaterial ElasticIsotropic 14 22.0 0.3 25.0
element SSPbrick 14 54 53 57 58 56 55 59 60 14 0 0 0

nDMaterial ElasticIsotropic 15 22.0 0.3 25.0
element SSPbrick 15 58 57 61 62 60 59 63 64 15 0 0 0

nDMaterial ElasticIsotropic 16 22.0 0.3 25.0
element SSPbrick 16 62 61 65 66 64 63 67 68 16 0 0 0

nDMaterial ElasticIsotropic 17 22.0 0.3 25.0
element SSPbrick 17 65 61 69 70 67 63 71 72 17 0 0 0

nDMaterial ElasticIsotropic 18 22.0 0.3 25.0
element SSPbrick 18 70 69 73 74 72 71 75 76 18 0 0 0

nDMaterial ElasticIsotropic 19 22.0 0.3 25.0
element SSPbrick 19 74 77 78 79 76 80 81 82 19 0 0 0

nDMaterial ElasticIsotropic 20 22.0 0.3 25.0
element SSPbrick 20 74 73 83 77 76 75 84 80 20 0 0 0

# ... 1380 like lines cut
timeSeries Constant 1 -factor 1

pattern Plain 1 1 {
	load 1 -0.0 -0.0 -1.0
	load 2 -0.0 -0.0 -1.0
	load 5 -0.0 -0.0 -1.0
	load 6 -0.0 -0.0 -1.0
	load 10 -0.0 -0.0 -1.0
	load 12 -0.0 -0.0 -1.0
	load 14 -0.0 -0.0 -1.0
	load 16 -0.0 -0.0 -1.0
	load 18 -0.0 -0.0 -1.0
	load 20 -0.0 -0.0 -1.0
	load 22 -0.0 -0.0 -1.0
	load 24 -0.0 -0.0 -1.0
	load 26 -0.0 -0.0 -1.0
	load 28 -0.0 -0.0 -1.0
	load 30 -0.0 -0.0 -1.0
	load 32 -0.0 -0.0 -1.0
	load 34 -0.0 -0.0 -1.0
	load 36 -0.0 -0.0 -1.0
	load 77 -0.0 -0.0 -1.0
	load 78 -0.0 -0.0 -1.0
# ... 295 like lines cut
}

recorder mpco recorder.mpco -N  displacement rotation reactionForce reactionMoment -E  force stresses section.force section.fiber.stress
constraints Transformation
numberer RCM
system BandSPD
test NormDispIncr 1.0e-6 12 5
algorithm Linear
integrator LoadControl 1.0
analysis Static
analyze 1    

wipe
